Circuit: * D:\Users\Utilisateur\Downloads\Projet_V3.asc

Unknown node in .ic card: "c1" -- ignoring
Unknown node in .ic card: "cout" -- ignoring
WARNING: Less than two connections to node V_CV1.  This node is used by V4.
WARNING: Less than two connections to node VSS.  This node is used by V2.
WARNING: Less than two connections to node VB_SIM.  This node is used by V5.
WARNING: Less than two connections to node VIMP_SIM.  This node is used by V6.
WARNING: Less than two connections to node NC_01.  This node is used by R:U3:OUT5:OUT.
WARNING: Less than two connections to node NC_02.  This node is used by R:U3:OUT6:OUT.
WARNING: Less than two connections to node NC_03.  This node is used by R:U3:OUT7:OUT.
WARNING: Less than two connections to node NC_04.  This node is used by R:U3:OUT8:OUT.
Per .tran options, skipping operating point for transient analysis.
Ignoring empty pin current: Ix(1:1)
Ignoring empty pin current: Ix(1:2)
Ignoring empty pin current: Ix(1:3)
Ignoring empty pin current: Ix(1:4)
Ignoring empty pin current: Ix(2:1)
Ignoring empty pin current: Ix(2:2)
Ignoring empty pin current: Ix(2:3)
Ignoring empty pin current: Ix(2:4)
Ignoring empty pin current: Ix(u4:ctrl_a)
Ignoring empty pin current: Ix(u6:ctrl_a)
Ignoring empty pin current: Ix(u7:ctrl_a)
Ignoring empty pin current: Ix(u10:ctrl_a)
Ignoring empty pin current: Ix(u3:vcc)

Date: Sat Mar 18 14:30:46 2023
Total elapsed time: 7.137 seconds.

tnom = 27
temp = 27
method = modified trap
totiter = 92893
traniter = 92893
tranpoints = 44252
accept = 43211
rejected = 1041
matrix size = 294
fillins = 186
solver = Normal
Thread vector: 30.3/9.5[5] 9.7/3.9[5] 2.6/2.3[3] 0.8/2.0[1]  2592/500
Matrix Compiler1: 36.30 KB object code size  5.9/3.2/[1.7]
Matrix Compiler2: 27.01 KB object code size  2.4/3.1/[0.9]

