Circuit: * D:\Users\Utilisateur\Documents\Antoine\Cours\S1\Èlectronique\projet_elec_s1\simu_complete.asc

Per .tran options, skipping operating point for transient analysis.

Date: Fri Nov 25 12:37:15 2022
Total elapsed time: 0.081 seconds.

tnom = 27
temp = 27
method = modified trap
totiter = 1965
traniter = 1965
tranpoints = 657
accept = 480
rejected = 177
matrix size = 76
fillins = 177
solver = Normal
Thread vector: 3.6/3.5[1] 1.9/1.5[2] 0.8/1.0[1] 0.2/1.3[1]  2592/500
Matrix Compiler1: 13.64 KB object code size  2.3/2.8/[0.4]
Matrix Compiler2: 9.67 KB object code size  0.8/0.6/[0.3]

