Circuit: * D:\Users\Utilisateur\Desktop\Projet 2022-2023-20221118\SchÈmas Èlectriques\etude du transistor en commutation.asc

Direct Newton iteration for .op point succeeded.

Date: Fri Nov 18 10:43:52 2022
Total elapsed time: 0.062 seconds.

tnom = 27
temp = 27
method = modified trap
totiter = 9255
traniter = 9244
tranpoints = 2890
accept = 2355
rejected = 535
matrix size = 8
fillins = 0
solver = Normal
Matrix Compiler1: 326 bytes object code size  0.2/0.1/[0.0]
Matrix Compiler2: 560 bytes object code size  0.1/0.1/[0.1]

