Circuit: * D:\Users\Utilisateur\Documents\Antoine\Cours\S1\ťlectronique\projet_elec_s1\lt_spice\3_AOP3.asc

Per .tran options, skipping operating point for transient analysis.

Date: Fri Nov 25 10:33:29 2022
Total elapsed time: 0.101 seconds.

tnom = 27
temp = 27
method = modified trap
totiter = 2158
traniter = 2158
tranpoints = 1074
accept = 1066
rejected = 8
matrix size = 29
fillins = 32
solver = Normal
Matrix Compiler1: 2.75 KB object code size  0.4/0.2/[0.2]
Matrix Compiler2: 2.91 KB object code size  0.2/0.2/[0.2]

