Circuit: * D:\Users\Utilisateur\Documents\Antoine\Cours\ENIB\S2\ZG2\Elec\Semaine 3 - Oscillations libres dun circuit RLC - Analogie systčme masse ressort avec frottement-202\RLC1.asc

Direct Newton iteration for .op point succeeded.

Date: Wed Jun 07 10:14:03 2023
Total elapsed time: 0.016 seconds.

tnom = 27
temp = 27
method = modified trap
totiter = 2085
traniter = 2082
tranpoints = 1042
accept = 1042
rejected = 0
matrix size = 2
fillins = 0
solver = Normal
Matrix Compiler1:       3 opcodes  0.0/[0.0]/0.0
Matrix Compiler2:      10 opcodes  0.0/[0.0]/0.1

