Circuit: * D:\Users\Utilisateur\Documents\Antoine\Cours\ENIB\S2\ZG2\Elec\Simulation - Librairie de composants\Simu.asc

WARNING: Less than two connections to node QS0.  This node is used by S:U1:OUT0:W1.
WARNING: Less than two connections to node QS1.  This node is used by S:U1:OUT1:W1.
WARNING: Less than two connections to node QS2.  This node is used by S:U1:OUT2:W1.
WARNING: Less than two connections to node QS3.  This node is used by S:U1:OUT3:W1.
WARNING: Less than two connections to node NC_01.  This node is used by S:U1:OUT4:W1.
WARNING: Less than two connections to node NC_02.  This node is used by S:U1:OUT5:W1.
WARNING: Less than two connections to node NC_03.  This node is used by S:U1:OUT6:W1.
WARNING: Less than two connections to node NC_04.  This node is used by S:U1:OUT7:W1.
WARNING: Less than two connections to node TC.  This node is used by R:U2:OUT5:OUT.
Direct Newton iteration for .op point succeeded.
Ignoring empty pin current: Ix(u1:vcc)
Ignoring empty pin current: Ix(u2:vcc)
Ignoring empty pin current: Ix(u1:vcc)
Ignoring empty pin current: Ix(u2:vcc)

Date: Wed Mar 22 18:45:57 2023
Total elapsed time: 0.786 seconds.

tnom = 27
temp = 27
method = modified trap
totiter = 33918
traniter = 33909
tranpoints = 9463
accept = 7426
rejected = 2037
matrix size = 235
fillins = 0
solver = Normal
Thread vector: 16.3/5.3[8] 3.8/2.6[8] 2.3/1.5[7] 0.7/0.7[1]  2592/500
Matrix Compiler1: 5.52 KB object code size  4.8/1.6/[1.0]
Matrix Compiler2: 11.41 KB object code size  1.3/2.8/[0.3]

