Circuit: * D:\Users\Utilisateur\Documents\Antoine\Cours\ENIB\S2\ELEC\Projet_S2\Simulation\adaptateur_mono.asc

Direct Newton iteration for .op point succeeded.

Date: Tue Mar 07 18:19:25 2023
Total elapsed time: 0.067 seconds.

tnom = 27
temp = 27
method = modified trap
totiter = 2727
traniter = 2718
tranpoints = 1316
accept = 1297
rejected = 19
matrix size = 6
fillins = 0
solver = Normal
Matrix Compiler1: 200 bytes object code size  0.1/0.0/[0.0]
Matrix Compiler2:      33 opcodes  0.1/[0.0]/0.0

