Circuit: * D:\Users\Utilisateur\Documents\Antoine\Cours\ENIB\S2\ELEC\Projet_S2\Simulation\monostable.asc

Fatal Error: Unknown subcircuit called in:
   xu1 vimp nc_01 nc_02 0 n001 va nc_03 vcc 0 74hct123 vcc=5 speed=1.0 tripdt=1e-9
