Circuit: * D:\Users\Utilisateur\Documents\Antoine\Cours\ENIB\S2\ELEC\Projet_S2\Simulation\TP.asc

Direct Newton iteration for .op point succeeded.
Heightened Def Con from 1.0608e-005 to 1.1091e-005

Date: Fri May 26 12:59:07 2023
Total elapsed time: 0.062 seconds.

tnom = 27
temp = 27
method = modified trap
totiter = 5576
traniter = 5573
tranpoints = 2787
accept = 2782
rejected = 6
matrix size = 8
fillins = 1
solver = Normal
Matrix Compiler1: 300 bytes object code size  0.0/0.0/[0.0]
Matrix Compiler2: 582 bytes object code size  0.1/0.1/[0.0]

