Circuit: * D:\Users\Utilisateur\Documents\Antoine\Cours\ENIB\S2\ELEC\Projet_S2\Simulation\VGate.asc

Limiting rise time of source vgate to 0.05
Limiting fall time of source vgate to 0.05
Direct Newton iteration for .op point succeeded.

Date: Wed Mar 01 11:46:30 2023
Total elapsed time: 0.062 seconds.

tnom = 27
temp = 27
method = modified trap
totiter = 2757
traniter = 2748
tranpoints = 1288
accept = 1212
rejected = 76
matrix size = 6
fillins = 0
solver = Normal
Matrix Compiler1: 146 bytes object code size  0.1/0.1/[0.0]
Matrix Compiler2: 380 bytes object code size  0.1/0.1/[0.0]

