Circuit: * 74hct.lib

Fatal Error: No analysis request found.
