Circuit: * D:\Users\Utilisateur\Documents\Antoine\Cours\ENIB\S2\ELEC\Projet_S2\dossier_simulation_ADSR_S2P2023\dossier_simulation_ADSR_S2P2023\ADSR_S2P_2023_squelette.asc

Unknown node in .ic card: "c1" -- ignoring
Unknown node in .ic card: "cout" -- ignoring
WARNING: Node CTRL1 is floating.
WARNING: Node CTRL3 is floating.
WARNING: Node CTRL0 is floating.
WARNING: Node CTRL2 is floating.

WARNING: Less than two connections to node V_CV1.  This node is used by V4.
WARNING: Less than two connections to node VSS.  This node is used by V2.
WARNING: Less than two connections to node NC_05.  This node is used by R:U2:3.
WARNING: Less than two connections to node VA.  This node is used by R:U2:OUT0:OUT.
WARNING: Less than two connections to node NC_07.  This node is used by R:U2:OUT1:OUT.
WARNING: Less than two connections to node VB_SIM.  This node is used by V5.
WARNING: Less than two connections to node VIMP_SIM.  This node is used by V6.
WARNING: Less than two connections to node N011.  This node is used by R:U3:OUT1:OUT.
WARNING: Less than two connections to node N014.  This node is used by R:U3:OUT2:OUT.
WARNING: Less than two connections to node N015.  This node is used by R:U3:OUT3:OUT.
WARNING: Less than two connections to node N016.  This node is used by R:U3:OUT4:OUT.
WARNING: Less than two connections to node NC_11.  This node is used by R:U3:OUT5:OUT.
WARNING: Less than two connections to node NC_12.  This node is used by R:U3:OUT6:OUT.
WARNING: Less than two connections to node NC_13.  This node is used by R:U3:OUT7:OUT.
WARNING: Less than two connections to node NC_14.  This node is used by R:U3:OUT8:OUT.
WARNING: Less than two connections to node NC_15.  This node is used by V7.
Per .tran options, skipping operating point for transient analysis.
Ignoring empty pin current: Ix(1:1)
Ignoring empty pin current: Ix(1:2)
Ignoring empty pin current: Ix(1:3)
Ignoring empty pin current: Ix(1:4)
Ignoring empty pin current: Ix(2:1)
Ignoring empty pin current: Ix(2:2)
Ignoring empty pin current: Ix(2:3)
Ignoring empty pin current: Ix(2:4)
Ignoring empty pin current: Ix(u4:ctrl_a)
Ignoring empty pin current: Ix(u6:ctrl_a)
Ignoring empty pin current: Ix(u7:ctrl_a)
Ignoring empty pin current: Ix(u10:ctrl_a)
Ignoring empty pin current: Ix(u3:vcc)

Date: Thu Mar 02 15:42:44 2023
Total elapsed time: 5.605 seconds.

tnom = 27
temp = 27
method = modified trap
totiter = 81777
traniter = 81777
tranpoints = 40611
accept = 40496
rejected = 115
matrix size = 310
fillins = 206
solver = Normal
Thread vector: 20.6/14.6[5] 7.3/3.1[5] 2.7/2.1[3] 2.2/3.6[1]  2592/500
Matrix Compiler1: 38.07 KB object code size  14.1/5.2/[1.3]
Matrix Compiler2: 28.12 KB object code size  3.9/4.2/[0.8]

